reduced_networks/ieee37/74pct/dss/Shunts.dss
! Kron-equivalent grounded shunts
new Reactor.sh_3 phases=3 bus1=709.1.2.3 bus2=709.0.0.0 rmatrix=[0.01593785577650382 | 0.005943020722634921 0.01604146503683523 | 0.005630466643846863 0.005942329944673475 0.01605666089515978] xmatrix=[-39438.32025266265 | 0.002577456962413201 -39438.32064085166 | 0.001934388944641205 0.002634096661731533 -39438.32015596066]
new Reactor.sh_5 phases=3 bus1=701.1.2.3 bus2=701.0.0.0 rmatrix=[-6.673101974132218e-13 | 1.414957187892997e-07 -3.395914939991199e-06 | 3.537442171787974e-08 -2.122446877523905e-07 -1.131968992486178e-06] xmatrix=[-25243.67945502326 | -5.659925794064372e-07 -25243.67945389128 | 2.829910651700252e-07 5.659874829672863e-07 -25243.67945502326]
new Reactor.sh_6 phases=3 bus1=702.1.2.3 bus2=702.0.0.0 rmatrix=[0.01189993314404281 | 0.003860304603941257 0.011961488934638 | 0.003636973498212113 0.003849840145965899 0.01190978206093263] xmatrix=[-18615.24618701045 | 0.001781733314025486 -18615.24648309294 | 0.001322835770198181 0.001784503301072491 -18615.24619809045]
new Reactor.sh_7 phases=3 bus1=703.1.2.3 bus2=703.0.0.0 rmatrix=[0.01362271659251011 | 0.003834781969595627 0.01373911034642106 | 0.003625952590613054 0.003846615275193699 0.01372514295502469] xmatrix=[-29557.58721852353 | 0.001868510648603116 -29557.58744743102 | 0.001432810046835213 0.001914680169501803 -29557.58714403148]
new Reactor.sh_8 phases=3 bus1=720.1.2.3 bus2=720.0.0.0 rmatrix=[0.05219957641097345 | 0.01442567757320069 0.05250074722140141 | 0.01363000014581596 0.01442304598211308 0.05221497595111657] xmatrix=[-20951.02748042419 | 0.007190377317896627 -20951.02852301108 | 0.005474614599468017 0.007194982556967829 -20951.02748071652]
new Reactor.sh_9 phases=3 bus1=734.1.2.3 bus2=734.0.0.0 rmatrix=[0.06536478117221962 | 0.02082688432519592 0.06576992083538613 | 0.01963870937889254 0.02082404820995976 0.06536248814494466] xmatrix=[-16484.9936971671 | 0.009699759091046298 -16484.99527709133 | 0.007206095863613819 0.00970591391228816 -16484.99369270182]
new Reactor.sh_10 phases=3 bus1=799r.1.2.3 bus2=799r.0.0.0 rmatrix=[-1.133434510778593e-06 | -7.438140928890093e-07 0.0001450793171971959 | 3.63889344203734e-13 2.479372310448808e-07 3.40029507040001e-06] xmatrix=[-35722.97836033681 | -1.983506938421859e-06 -35722.97836487053 | 1.081578672488766e-12 -8.500712386468377e-07 -35722.97836260368]
